   20
 
H      -1.5287660000000001    0.9512130000000000    2.7395909999999999
C       1.7762869999999999    1.3409260000000001    1.5956800000000000
H       2.5406979999999999    0.9382950000000000    0.8957120000000000
H       1.6423300000000001    2.3994469999999999    1.3303550000000000
H       2.2106940000000002    1.2466159999999999    2.6023999999999998
Cu     -0.8743130000000000    1.0815399999999999   -0.5485719999999999
Cu     -2.4725690000000000    0.7265360000000000    1.3332370000000000
Cu     -1.6040470000000000    0.8186570000000000   -2.8986130000000001
Cu     -2.9717389999999999    0.0412290000000000   -0.9547070000000000
Cu      0.7599180000000000    0.6880920000000000   -2.2182379999999999
Cu     -0.9810150000000000   -1.1659800000000000   -1.7685000000000000
Cu     -1.5844250000000000   -1.3567000000000000    0.5357040000000000
Cu      1.1232000000000000   -0.2820910000000000    0.0453600000000000
Cu     -1.4867580000000000   -0.9574770000000000    2.8744920000000000
Cu     -0.0728280000000000    0.7009590000000000    1.8717940000000000
Cu      0.4697640000000000   -1.9065559999999999    1.8292010000000001
Cu      2.3617669999999999   -2.3485740000000002    0.2659540000000000
Cu      1.4659740000000001   -1.6167430000000000   -2.0007890000000002
Cu      0.1185250000000000   -2.7523390000000001   -0.3850050000000000
Cu     -0.0173620000000000   -0.9025500000000000   -3.8749490000000000
