   20
 
H       0.5353070000000000    0.8258090000000000    2.4085019999999999
H       2.8191579999999998   -1.8931890000000000    0.4290390000000000
C       1.9431849999999999   -2.2120829999999998    1.0104970000000000
H       1.3626030000000000   -2.9297339999999998    0.4171880000000000
H       2.2703720000000001   -2.6951190000000000    1.9446200000000000
Cu     -0.7789590000000000    1.0570560000000000    1.3374330000000001
Cu      1.6005529999999999    1.7331110000000001    1.3799200000000000
Cu     -1.4675330000000000   -1.3235079999999999    1.8863040000000000
Cu      0.9489330000000000   -0.6453920000000000    1.5542069999999999
Cu     -2.8423780000000001    0.0929170000000000    0.5225970000000000
Cu     -0.7016270000000000   -0.9933460000000000   -0.3703900000000000
Cu      1.0148310000000000    0.6450270000000000   -0.7027640000000001
Cu     -1.5888679999999999    1.5293820000000000   -0.9065560000000000
Cu      2.2929879999999998    2.6106020000000001   -0.8190260000000000
Cu      0.0484060000000000    2.9924409999999999   -0.0100260000000000
Cu      0.2367680000000000    2.3279220000000000   -2.3487360000000002
Cu     -2.0054620000000001    1.5885210000000001   -3.2182219999999999
Cu     -2.6535980000000001   -0.4502100000000000   -1.8600680000000001
Cu     -0.3512550000000000   -0.0235640000000000   -2.5426350000000002
Cu     -2.6834250000000002   -2.2366429999999999   -0.1118830000000000
