   20
 
H       2.0400200000000002   -1.9116460000000000    1.0880590000000001
C       1.3843859999999999    1.2484910000000000    2.6359550000000000
H       1.0097950000000000    2.2859579999999999    2.4449689999999999
H       0.8259890000000000    0.8991400000000001    3.5161950000000002
H       2.4446720000000002    1.3925220000000000    2.9015710000000001
Cu     -0.9139010000000000   -0.5641680000000000    0.8976020000000000
Cu      1.6130100000000001   -0.4154640000000000    1.5395200000000000
Cu     -1.7910029999999999   -2.8555329999999999    0.3709270000000000
Cu      0.6035070000000000   -2.3635210000000000    0.4001680000000000
Cu     -2.9429159999999999   -0.7849980000000000   -0.3340680000000000
Cu     -0.8335790000000000   -1.6786170000000000   -1.4599629999999999
Cu      1.0714680000000001   -0.3182240000000000   -0.9141770000000000
Cu     -1.3273090000000001    0.9756070000000000   -0.8967380000000000
Cu      2.6531609999999999    1.3852150000000001   -0.5939860000000000
Cu      0.4918700000000000    1.5008550000000001    0.6832190000000000
Cu      0.6280470000000000    2.0639189999999998   -1.7073350000000000
Cu     -1.4335220000000000    2.0109309999999998   -3.0564230000000001
Cu     -2.4767800000000002   -0.2985630000000000   -2.6768290000000001
Cu     -0.0922650000000000    0.0569030000000000   -2.9722379999999999
Cu     -2.9546500000000000   -2.6288079999999998   -1.8664289999999999
