   20
 
H      -2.5916160000000001   -0.3549870000000000    1.5019560000000001
C      -2.0545620000000002   -2.7839909999999999   -1.0950839999999999
H      -2.3301690000000002   -3.6753000000000000   -0.5116010000000000
H      -2.7754840000000001   -2.6344460000000001   -1.9131229999999999
H      -1.0573830000000000   -2.9322339999999998   -1.5278970000000001
Cu      0.4910110000000000    1.1316729999999999    1.9576819999999999
Cu      2.9522990000000000    0.9722220000000000    2.4212750000000001
Cu     -0.9478020000000000   -0.9189500000000000    2.1800970000000000
Cu      1.4686210000000000   -1.0022660000000001    2.0987659999999999
Cu     -1.7114950000000000    0.9571570000000000    0.8368010000000000
Cu      0.1335550000000000   -0.6604989999999999    0.0238910000000000
Cu      2.2720899999999999    0.4334980000000000    0.2014140000000000
Cu      0.1106070000000000    2.0457709999999998   -0.2746250000000000
Cu      4.0860329999999996    1.9730690000000000    0.3659200000000000
Cu      1.9694700000000001    2.7905139999999999    1.0812409999999999
Cu      2.2987869999999999    2.4454270000000000   -1.3270489999999999
Cu      0.1335340000000000    2.4458880000000001   -2.6267689999999999
Cu     -1.3226300000000000    0.6460190000000000   -1.5866670000000000
Cu      1.1013560000000000    0.4036870000000000   -1.8977900000000001
Cu     -2.2262219999999999   -1.2822499999999999    0.0915620000000000
