   20
 
H       0.0323860000000000    1.8192969999999999   -1.4613449999999999
H      -0.6242860000000000    2.5098099999999999    2.4072119999999999
C       0.4165810000000000    2.3687299999999998    2.0939390000000002
H       0.8042570000000000    3.3135400000000002    1.6693370000000001
H       1.0244290000000000    2.2197480000000001    3.0122260000000001
Cu     -0.9595680000000000   -0.2959850000000000    0.8863040000000000
Cu      1.1888190000000001    0.3967760000000000    1.9467509999999999
Cu     -1.9385490000000001   -2.5169169999999998    1.3093340000000000
Cu      0.4126280000000000   -1.9669850000000000    1.9104120000000000
Cu     -2.6181410000000001   -1.1298790000000001   -0.6063420000000000
Cu     -0.2924220000000000   -2.4310149999999999   -0.4161380000000000
Cu      1.5305660000000001   -0.9714200000000000   -0.0132210000000000
Cu     -0.9175040000000000    0.3550660000000000   -1.5030509999999999
Cu      2.8908969999999998    0.9044730000000000    0.0408240000000000
Cu      0.4186810000000000    1.6624049999999999    0.1582240000000000
Cu      1.3962360000000000    0.7838950000000000   -1.9086850000000000
Cu     -0.0772710000000000   -0.0906820000000000   -3.7543989999999998
Cu     -1.3879940000000000   -1.8272240000000000   -2.5598660000000000
Cu      0.9986810000000000   -1.5947709999999999   -2.2563960000000001
Cu     -2.2984239999999998   -3.5088620000000001   -0.9551180000000000
