   20
 
H      -1.5224070000000001    3.2942200000000001   -0.8168590000000000
C      -1.3140210000000001    3.2598120000000002   -1.9083280000000000
H      -0.6222970000000000    2.4388280000000000   -2.2005140000000001
H      -2.2645029999999999    3.1114299999999999   -2.4316610000000001
H      -0.8458960000000000    4.2083709999999996   -2.1936670000000000
Co      0.2699790000000000   -2.0863139999999998    1.5783229999999999
Co      2.6217220000000001   -2.2497060000000002    1.6561610000000000
Co     -2.0629840000000002   -1.8022879999999999    1.3025000000000000
Co      1.6720530000000000   -0.0929120000000000    1.6355270000000000
Co     -0.7092470000000000    0.1380410000000000    1.4615030000000000
Co      0.6564060000000000    2.0005929999999998    1.6535190000000000
Co      1.2179850000000001   -4.2477250000000000    1.2892760000000001
Co     -1.0339640000000001   -3.9627490000000001    1.2588450000000000
Co      0.5654640000000000   -0.5138220000000000   -0.3878480000000000
Co      2.9643549999999999   -0.8444469999999999   -0.1148750000000000
Co     -1.8412780000000000   -0.4085590000000000   -0.4842770000000000
Co      1.9095350000000000    1.3704410000000000   -0.1467000000000000
Co     -0.4118190000000000    1.6186339999999999   -0.3229690000000000
Co      1.5439160000000001   -2.7150479999999999   -0.3237350000000000
Co     -0.7929990000000000   -2.5167989999999998   -0.5042200000000000
