   20
 
H       0.5993130000000000   -4.2073799999999997    2.5659480000000001
C       1.2207930000000000   -3.5728780000000002    1.9243060000000001
H       2.2857110000000000   -3.7821669999999998    2.0703860000000001
H       0.9556559999999999   -3.7987950000000001    0.8688190000000000
H       1.0304830000000000   -2.5106290000000002    2.2165420000000000
Co     -0.4912190000000000    0.2927170000000000    0.3553420000000000
Co      1.8697459999999999    0.2300090000000000    0.4038050000000000
Co     -2.8554409999999999    0.4668780000000000    0.1896230000000000
Co      0.8345420000000000    2.3316539999999999    0.2107320000000000
Co     -1.5977910000000000    2.4445709999999998    0.0941300000000000
Co     -0.2909080000000000    4.3644559999999997    0.0337240000000000
Co      0.5463249999999999   -1.8034800000000000    0.4386290000000000
Co     -1.7374680000000000   -1.6775389999999999    0.2406100000000000
Co     -0.3252160000000000    1.6553230000000001   -1.7263670000000000
Co      2.0630760000000001    1.4331320000000001   -1.5160260000000001
Co     -2.7536170000000002    1.6817789999999999   -1.7458400000000001
Co      0.9395610000000000    3.6106470000000002   -1.7292320000000001
Co     -1.4079140000000001    3.7309000000000001   -1.8350880000000001
Co      0.7416720000000000   -0.5209310000000000   -1.4650780000000001
Co     -1.6273020000000000   -0.3682660000000000   -1.5949670000000000
