   20
 
H       3.0441630000000002   -3.7476769999999999    0.8236860000000000
C       1.9506520000000001   -3.6883670000000000    0.8386140000000000
H       1.5843030000000000   -3.6444770000000002   -0.2102370000000000
H       1.5109939999999999   -4.5744520000000000    1.3094900000000000
H       1.6606939999999999   -2.8005460000000002    1.4536430000000000
Co     -0.4691200000000000    0.1561570000000000    0.5103640000000000
Co      1.8582790000000000    0.4643800000000000    0.2877610000000000
Co     -2.8358289999999999   -0.0250350000000000    0.6472420000000000
Co      0.5320290000000000    2.3729380000000000    0.6530380000000000
Co     -1.8857150000000000    2.1108660000000001    0.8304630000000000
Co     -0.8759630000000000    4.1937470000000001    1.0282080000000000
Co      0.8391170000000000   -1.7259869999999999    0.0169910000000000
Co     -1.4439390000000001   -1.9307380000000001    0.1297680000000000
Co     -0.7855970000000000    1.8997109999999999   -1.2431049999999999
Co      1.6170410000000000    2.0327549999999999   -1.3458650000000001
Co     -3.1698580000000001    1.5333349999999999   -0.9931290000000000
Co      0.1867570000000000    3.9987529999999998   -0.9767670000000001
Co     -2.1469990000000001    3.7535820000000002   -0.7967160000000000
Co      0.5951480000000000   -0.0795570000000000   -1.5659440000000000
Co     -1.7661560000000001   -0.2993880000000000   -1.3975050000000000
