   20
 
H       1.5488270000000000   -2.6862409999999999   -2.6570190000000000
C       0.7835590000000000   -2.7703000000000002   -1.8785440000000000
H       1.3111539999999999   -2.9397300000000000   -0.9070440000000000
H       0.1678520000000000   -1.8504069999999999   -1.8887810000000000
H       0.1293090000000000   -3.6312090000000001   -2.0503190000000000
Co      0.1386630000000000   -0.5065130000000000    2.3444850000000002
Co      2.3677910000000000   -0.6114520000000000    1.5802030000000000
Co     -2.1327389999999999   -0.2887790000000000    2.9712559999999999
Co      1.3424520000000000    1.5073890000000001    1.7165130000000000
Co     -0.9757510000000000    1.6654519999999999    2.4042599999999998
Co      0.2650600000000000    3.5527259999999998    1.8849410000000000
Co      1.1331830000000001   -2.5652970000000002    2.1258949999999999
Co     -1.0769730000000000   -2.4712489999999998    2.7050329999999998
Co     -0.3935020000000000    0.8058040000000000    0.2852150000000000
Co      1.9288660000000000    0.5705180000000000   -0.3167180000000000
Co     -2.6868379999999998    0.8796470000000000    1.0909970000000000
Co      0.8199540000000000    2.7464019999999998   -0.1744610000000000
Co     -1.4174160000000000    2.8937900000000001    0.4803440000000000
Co      0.6668930000000000   -1.3822829999999999    0.1738690000000000
Co     -1.5987760000000000   -1.1904760000000001    0.9142160000000000
