   20
 
H       3.0891959999999998   -2.5486689999999999   -1.1435730000000000
C       2.0315439999999998   -2.6364160000000001   -0.8746620000000001
H       1.4534149999999999   -1.9095190000000000   -1.4770589999999999
H       1.6483520000000000   -3.6419579999999998   -1.0768020000000000
H       1.9501400000000000   -2.4632350000000001    0.2270870000000000
Co     -1.0097460000000000    0.3038570000000000    1.4691060000000000
Co      1.2587299999999999    0.4790840000000000    2.0894770000000000
Co     -3.2392810000000001    0.1977470000000000    0.6841610000000000
Co      0.2539870000000000    2.3317070000000002    1.0317449999999999
Co     -2.0458240000000001    2.1723070000000000    0.2869280000000000
Co     -0.8094590000000000    4.1098480000000004   -0.0084240000000000
Co      0.0137590000000000   -1.5151370000000000    2.4277620000000000
Co     -2.1343850000000000   -1.7368220000000001    1.6743770000000000
Co     -0.3244170000000000    1.0065150000000000   -0.8295260000000000
Co      1.9337040000000001    1.1124470000000000    0.0083940000000000
Co     -2.6695129999999998    0.7969710000000000   -1.4417519999999999
Co      0.8533980000000000    3.0034779999999999   -1.1064870000000000
Co     -1.3612960000000001    2.8411700000000000   -1.8317390000000000
Co      0.6984030000000000   -0.8991830000000000    0.2877860000000000
Co     -1.5907050000000000   -1.0041949999999999   -0.3968020000000000
