   20
 
H       2.6785690000000000   -4.0807529999999996   -0.0295860000000000
C       1.6143970000000001   -3.9353259999999999    0.1840270000000000
H       1.5211790000000001   -3.1206969999999998    0.9448569999999999
H       1.0865870000000000   -3.7205750000000002   -0.7713910000000000
H       1.1682840000000001   -4.8389150000000001    0.6142590000000000
Co     -0.3807800000000000    0.1592440000000000    0.6135620000000001
Co      1.9182020000000000    0.2444460000000000    0.1027970000000000
Co     -2.7155279999999999    0.2106910000000000    1.0598630000000000
Co      0.8760960000000000    2.2398639999999999    0.7844930000000000
Co     -1.5136570000000000    2.2129560000000001    1.2705970000000000
Co     -0.2561130000000000    4.1548290000000003    1.4827100000000000
Co      0.6277310000000000   -1.7957259999999999   -0.2049500000000000
Co     -1.6279220000000001   -1.7733600000000000    0.2183710000000000
Co     -0.7182920000000000    2.0764179999999999   -0.9440000000000000
Co      1.6537340000000000    1.9707669999999999   -1.3614010000000001
Co     -3.0767159999999998    1.9345720000000000   -0.3996860000000000
Co      0.5125720000000000    4.0319170000000000   -0.6577870000000000
Co     -1.7922410000000000    4.0126039999999996   -0.1784660000000000
Co      0.3776720000000000    0.0055920000000000   -1.6002060000000000
Co     -1.9537730000000000    0.0114540000000000   -1.1280640000000000
