   20
 
H      -1.6952750000000001   -3.0516390000000002   -2.7035849999999999
C      -1.0881069999999999   -2.1806670000000001   -2.4366180000000002
H      -0.7399430000000000   -1.6413040000000001   -3.3232680000000001
H      -1.7415989999999999   -1.4795710000000000   -1.8558410000000001
H      -0.2004290000000000   -2.5317240000000001   -1.8704300000000000
Co      0.1128020000000000   -1.1330670000000000    2.0677970000000001
Co      2.4515440000000002   -1.1249510000000000    2.4345490000000001
Co     -2.1918839999999999   -0.9965290000000000    1.5901400000000001
Co      1.3243620000000000    0.9272330000000000    2.5696430000000001
Co     -1.0585850000000001    0.9920730000000000    2.1673480000000001
Co      0.1223600000000000    2.9012600000000002    2.7464290000000000
Co      1.2660340000000001   -3.1360190000000001    1.7144140000000001
Co     -0.9994310000000000   -3.0401039999999999    1.4369179999999999
Co      0.4596230000000000    0.6898730000000000    0.3893440000000000
Co      2.8361190000000001    0.5175729999999999    0.8946920000000000
Co     -1.9203290000000000    0.6494000000000000    0.0478390000000000
Co      1.5914450000000000    2.6317029999999999    1.0107480000000000
Co     -0.7113320000000000    2.6976870000000002    0.6345330000000000
Co      1.6411610000000001   -1.4079349999999999    0.2973350000000000
Co     -0.7030500000000000   -1.3824930000000000   -0.1774750000000000
