   20
 
H       1.8234779999999999   -2.4121060000000001   -1.1052560000000000
C       1.5421870000000000   -2.0686700000000000   -2.1310859999999998
H       0.8015940000000000   -1.2450230000000000   -2.1304490000000000
H       2.4544790000000001   -1.7149150000000000   -2.6221880000000000
H       1.1103499999999999   -2.9266299999999998   -2.6566350000000001
Co     -0.5887580000000000   -0.8963170000000000    2.0482890000000000
Co      1.7671230000000000   -0.8000710000000000    2.0382009999999999
Co     -2.9517850000000001   -0.8523780000000000    1.9423779999999999
Co      0.5776400000000000    1.2180430000000000    2.3110930000000001
Co     -1.8435189999999999    1.1898050000000000    2.2313250000000000
Co     -0.6671980000000000    3.1561810000000001    2.5785680000000002
Co      0.5919660000000000   -2.8361939999999999    1.7033560000000001
Co     -1.6877780000000000   -2.8998810000000002    1.5432490000000001
Co     -0.5604910000000000    0.8678250000000000    0.2771080000000000
Co      1.8448860000000000    0.8009900000000000    0.4200220000000000
Co     -2.9906890000000002    0.7290720000000001    0.2978210000000000
Co      0.5673010000000001    2.8716510000000000    0.6840220000000000
Co     -1.7669250000000001    2.8397150000000000    0.5958290000000001
Co      0.6615030000000000   -1.2231740000000000    0.0233180000000000
Co     -1.7304930000000001   -1.2285759999999999    0.0193910000000000
