   20
 
H       2.6692999999999998    0.0257810000000000   -1.3809860000000000
C       3.5861540000000001    0.3742010000000000   -0.8502650000000000
H       3.9592070000000001    1.2690830000000000   -1.3589380000000000
H       3.4157400000000000    0.6254850000000000    0.2204810000000000
H       4.3172899999999998   -0.4408820000000000   -0.8877220000000000
Co     -1.5103000000000000   -1.0162920000000000    1.2449370000000000
Co      0.7202080000000000   -0.8397600000000000    2.0200130000000001
Co     -3.6962899999999999   -1.0707960000000001    0.3587780000000000
Co     -0.3858290000000000    1.1328840000000000    1.4249820000000000
Co     -2.6720160000000002    1.0295300000000001    0.5749880000000001
Co     -1.5824270000000000    3.0454629999999998    0.8648840000000000
Co     -0.3421420000000000   -2.9617239999999998    1.7205120000000000
Co     -2.4565269999999999   -3.1152090000000001    0.8401100000000000
Co     -0.8393780000000000    0.3321170000000000   -0.7435920000000000
Co      1.3955740000000001    0.3240240000000000    0.1586260000000000
Co     -3.1296940000000002    0.1294710000000000   -1.4991070000000000
Co      0.1909900000000000    2.4078590000000002   -0.4231970000000000
Co     -1.9926900000000001    2.2961369999999999   -1.2504210000000000
Co      0.2812690000000000   -1.7305459999999999   -0.0959890000000000
Co     -1.9284410000000001   -1.8168240000000000   -0.9380930000000000
