   20
 
H      -1.4980960000000001   -0.6711279999999999    2.4568230000000000
C      -1.4489280000000000    0.2403110000000000    3.0659000000000001
H      -1.7954680000000001    1.0862750000000001    2.4615250000000000
H      -2.0768909999999998    0.1310480000000000    3.9585189999999999
H      -0.4071240000000000    0.4135280000000000    3.3598740000000000
Co      0.0770410000000000   -0.9370760000000000   -0.0601880000000000
Co      2.1333540000000002   -0.5352620000000000    1.0433420000000000
Co     -1.9378679999999999   -1.2126619999999999   -1.2701880000000001
Co      1.0121849999999999    1.3111940000000000    0.1351880000000000
Co     -1.0876990000000000    0.9610450000000000   -1.0543730000000000
Co     -0.1892600000000000    3.0776849999999998   -0.7608220000000000
Co      1.2815810000000001   -2.7715139999999998    0.7057700000000000
Co     -0.7017180000000000   -3.0903969999999998   -0.4090080000000000
Co      0.9754620000000001    0.3317220000000000   -2.0093230000000002
Co      3.0177719999999999    0.5892830000000000   -0.7346230000000000
Co     -1.1393219999999999   -0.1022570000000000   -3.1004930000000002
Co      1.8057829999999999    2.4917870000000000   -1.7025779999999999
Co     -0.2154770000000000    2.1559529999999998   -2.8469760000000002
Co      2.1200510000000001   -1.5652580000000000   -1.0360870000000000
Co      0.0746220000000000   -1.9042770000000000   -2.2022800000000000
