   19
 
H       1.3031770000000000   -3.5128149999999998    1.1098450000000000
C       1.9631090000000000   -2.6532480000000001    0.9223140000000000
H       2.5053860000000001   -2.3836900000000001    1.8402870000000000
H       2.6809059999999998   -2.8985430000000001    0.1226630000000000
Ni     -2.9178440000000001   -0.1777290000000000    0.9711290000000000
Ni     -0.8734000000000000    1.9167369999999999   -1.5571919999999999
Ni     -0.6339370000000000   -0.1711500000000000    1.7631349999999999
Ni      1.3776189999999999    2.3920889999999999   -1.5708219999999999
Ni      0.8568000000000000    0.0390440000000000   -1.7501270000000000
Ni     -1.2957060000000000    0.0574910000000000   -2.8444180000000001
Ni      0.9276470000000000   -1.1621400000000000    0.3135020000000000
Ni     -0.2354770000000000    2.1653730000000002    2.2495200000000000
Ni      0.6875250000000001    1.1672769999999999    0.3205150000000000
Ni     -1.1232249999999999   -0.4134810000000000   -0.5423660000000000
Ni     -0.0428370000000000    3.3345710000000000    0.1448530000000000
Ni     -2.9379379999999999    0.8083140000000000   -1.2337570000000000
Ni     -1.7747489999999999    1.7835510000000001    0.5799060000000000
Ni      0.4113290000000000    1.5095529999999999   -3.5068560000000000
Ni     -2.2540460000000002    1.1171469999999999    2.8065370000000001
