   19
 
H      -2.2825730000000002   -1.5099100000000001   -1.7647010000000001
C      -1.2676000000000001   -1.4531259999999999   -2.2783590000000000
H      -1.4500450000000000   -1.0270159999999999   -3.2762410000000002
H      -0.9706680000000000   -2.5143320000000000   -2.3654430000000000
Ni     -1.9257029999999999   -0.6386980000000000    1.7257199999999999
Ni      0.3976310000000000    1.2515900000000000   -0.7219260000000000
Ni      0.0902870000000000   -0.0944720000000000    2.9925099999999998
Ni      2.4799370000000001    2.0943689999999999   -0.3908410000000000
Ni      2.3441160000000001   -0.3259810000000000   -0.1750180000000000
Ni      0.5159150000000000   -0.8152560000000000   -1.6842070000000000
Ni      2.0790899999999999   -1.0315289999999999    2.0900259999999999
Ni      0.0251580000000000    2.2988710000000001    2.9810989999999999
Ni      1.5406200000000001    1.1275640000000000    1.5555040000000000
Ni      0.2381710000000000   -0.8302610000000000    0.7490900000000000
Ni      0.6502450000000000    3.0656010000000000    0.8083050000000001
Ni     -1.5149760000000001   -0.2858210000000000   -0.6004610000000000
Ni     -0.9913440000000000    1.3525350000000000    1.1135560000000000
Ni      2.1964299999999999    0.7016700000000000   -2.2314170000000000
Ni     -1.8911910000000001    1.0349809999999999    3.3310399999999998
