   19
 
H      -2.4782009999999999   -1.7767029999999999   -2.3608270000000000
C      -2.4177300000000002   -1.9096979999999999   -1.2685100000000000
H      -3.3808490000000000   -1.6397510000000000   -0.8070980000000000
H      -2.1723469999999998   -2.9540220000000001   -1.0345009999999999
Ni     -1.1476480000000000   -0.8444110000000000    1.8114180000000000
Ni      0.5947740000000000    1.0289960000000000   -1.0914710000000001
Ni      0.8187030000000000    0.1189870000000000    2.7405439999999999
Ni      2.5881300000000000    2.2167219999999999   -1.0550530000000000
Ni      2.8200740000000000   -0.1388380000000000   -0.5536440000000000
Ni      1.0174620000000001   -1.1245780000000001   -1.7599240000000000
Ni      2.8389669999999998   -0.6046370000000000    1.7594369999999999
Ni      0.4298740000000000    2.4967450000000002    2.4898430000000000
Ni      1.9343820000000000    1.3811070000000001    1.0535960000000000
Ni      0.8691280000000000   -0.8808250000000000    0.5833750000000000
Ni      0.6823970000000000    3.0496590000000001    0.1617900000000000
Ni     -1.0881769999999999   -0.6862370000000000   -0.6236040000000000
Ni     -0.6024090000000000    1.1781320000000000    0.8799430000000000
Ni      2.3187700000000002    0.5701400000000000   -2.6852890000000000
Ni     -1.2462200000000001    1.0339050000000001    3.1835350000000000
