   19
 
H      -0.1586560000000000    0.1354230000000000   -4.5461999999999998
C       0.6739820000000000   -0.3181510000000000   -3.9856210000000001
H       0.7640490000000000   -1.3844730000000001   -4.2386489999999997
H       1.6147510000000000    0.2005420000000000   -4.2224940000000002
Ni     -2.0262389999999999   -1.0403590000000000    3.2461280000000001
Ni     -0.8901900000000000    0.5687830000000000   -0.0760060000000000
Ni      0.2027960000000000   -0.2543550000000000    3.6096740000000000
Ni      1.1133020000000000    1.5088520000000001   -0.6361110000000000
Ni      1.2690720000000000   -0.8095450000000000   -0.0885700000000000
Ni     -0.8838859999999999   -1.6134900000000001   -0.7437160000000000
Ni      1.8104929999999999   -1.2344160000000000    2.2069060000000000
Ni     -0.0103600000000000    2.1128740000000001    3.3509190000000002
Ni      0.9828260000000000    0.8244660000000000    1.6243339999999999
Ni     -0.3866770000000000   -1.3176310000000000    1.5509240000000000
Ni     -0.2881060000000000    2.6033469999999999    0.9862750000000000
Ni     -2.5144199999999999   -0.8823280000000000    0.8686520000000000
Ni     -1.5334909999999999    0.9031120000000000    2.1344300000000000
Ni      0.3116870000000000   -0.1328780000000000   -2.1160619999999999
Ni     -1.6051660000000001    0.8696840000000000    4.5294809999999996
