   19
 
H       1.4813529999999999    2.3987530000000001    1.7996840000000001
C       1.2859609999999999    1.3209880000000001    1.9003289999999999
H       2.0951279999999999    0.7913100000000000    1.3303650000000000
H       1.4187580000000000    1.0036769999999999    2.9517340000000001
Ni     -2.8054730000000001   -1.7812300000000001    0.3610180000000000
Ni     -0.7258610000000000    0.2246590000000000   -2.0968200000000001
Ni     -0.6978950000000000   -1.4152520000000000    1.4805200000000001
Ni      1.4028419999999999    1.0411020000000000   -1.9577910000000001
Ni      1.2916529999999999   -1.3340810000000001   -1.8203180000000001
Ni     -0.6716310000000000   -1.8137930000000000   -3.1590039999999999
Ni      1.1786420000000000   -2.2907609999999998    0.3292120000000000
Ni     -0.6137340000000000    0.9292160000000000    1.7865040000000001
Ni      0.7582760000000000   -0.0065320000000000    0.1132240000000000
Ni     -0.7648340000000000   -1.8843070000000000   -0.8116840000000000
Ni     -0.2905810000000000    1.9406950000000001   -0.5442180000000000
Ni     -2.6329069999999999   -1.1427900000000000   -1.9067940000000001
Ni     -1.8384849999999999    0.2627920000000000   -0.0691030000000000
Ni      0.9034120000000000   -0.2311760000000000   -3.8264250000000000
Ni     -2.6055990000000002   -0.2469050000000000    2.1150940000000000
