   19
 
C      -0.4835080000000000    3.2793009999999998   -0.3374110000000000
H      -1.4111000000000000    3.5801729999999998    0.1754110000000000
H       0.3768540000000000    3.7800410000000002    0.1256400000000000
H      -0.5435190000000000    3.5506470000000001   -1.4036810000000000
Ni     -1.4217070000000001   -2.8035139999999998    1.6710190000000000
Ni     -0.1888210000000000   -0.7839500000000000   -1.3964280000000000
Ni      0.4119700000000000   -1.4266350000000001    2.4455380000000000
Ni      1.5668660000000001    0.6807360000000000   -1.5637239999999999
Ni      2.2334589999999999   -1.5233200000000000   -0.9600649999999999
Ni      0.5389170000000000   -2.9076209999999998   -1.9947349999999999
Ni      2.4543430000000002   -1.8935090000000001    1.3596320000000000
Ni     -0.4073350000000000    0.7853570000000000    2.1295240000000000
Ni      1.1940740000000001   -0.0976990000000000    0.6347990000000000
Ni      0.5034060000000000   -2.5281829999999998    0.3343500000000000
Ni     -0.3573390000000000    1.3675109999999999   -0.2359330000000000
Ni     -1.4954040000000000   -2.6587660000000000   -0.7309690000000000
Ni     -1.2779069999999999   -0.7256170000000000    0.6408760000000000
Ni      1.4802729999999999   -1.0771350000000000   -3.0884450000000001
Ni     -1.7651230000000000   -0.9048820000000000    2.9784880000000000
