   19
 
H      -3.6575240000000000   -0.3423500000000000   -1.1545000000000001
C      -2.7775409999999998   -0.7332680000000000   -1.6896949999999999
H      -2.7343160000000002   -0.2993130000000000   -2.7016760000000000
H      -2.8387030000000002   -1.8274800000000000   -1.7568260000000000
Ni     -1.4313009999999999   -0.9428400000000000    1.5416980000000000
Ni      0.9077530000000000    1.0793230000000000   -0.7787890000000000
Ni      0.6790920000000000   -0.8712960000000000    2.6403460000000001
Ni      3.1510680000000000    1.5988140000000000   -0.4764440000000000
Ni      2.6880090000000001   -0.7704520000000000   -0.6578060000000000
Ni      0.7459750000000001   -0.8330600000000000   -2.0331510000000002
Ni      2.4594770000000001   -1.8402380000000000    1.4328470000000000
Ni      0.9878470000000000    1.4904679999999999    3.0741049999999999
Ni      2.1861619999999999    0.4349990000000000    1.3356930000000000
Ni      0.5523130000000001   -1.2112540000000001    0.2898490000000000
Ni      1.4994639999999999    2.5681710000000000    0.9821140000000000
Ni     -1.2105950000000001   -0.1474570000000000   -0.7505540000000001
Ni     -0.2932130000000000    1.0181370000000001    1.1947330000000000
Ni      2.5142690000000001    0.6110240000000000   -2.4902669999999998
Ni     -1.0654800000000000    0.4326500000000000    3.3844409999999998
