   19
 
H       2.0251209999999999   -2.3066680000000002    2.3627050000000001
C       2.4711439999999998   -1.4268879999999999    1.8775850000000001
H       2.8008350000000002   -0.7014830000000000    2.6348370000000001
H       3.3295880000000002   -1.7364990000000000    1.2574010000000000
Ni     -2.7757790000000000   -0.8558960000000000    0.8841100000000000
Ni     -1.1957199999999999    0.9476820000000000   -2.1519219999999999
Ni     -0.7333870000000000    0.1737010000000000    1.6763660000000000
Ni      0.7720580000000000    2.1289729999999998   -2.2806460000000000
Ni      1.0535350000000001   -0.1907380000000000   -1.6889940000000001
Ni     -0.8391180000000000   -1.2391319999999999   -2.7686980000000001
Ni      1.2217300000000000   -0.6210400000000000    0.6710110000000000
Ni     -1.1560140000000001    2.5306350000000002    1.3781800000000000
Ni      0.2748380000000000    1.3770849999999999   -0.1035310000000000
Ni     -0.8187080000000000   -0.9061100000000000   -0.4363270000000000
Ni     -1.0790120000000001    3.0041030000000002   -0.9896710000000000
Ni     -2.8238289999999999   -0.6493660000000000   -1.5191260000000000
Ni     -2.2694809999999999    1.1636899999999999   -0.1029100000000000
Ni      0.3816510000000000    0.4346580000000000   -3.8427490000000000
Ni     -2.7963710000000002    1.0748400000000000    2.2102919999999999
