   19
 
H      -2.6352750000000000    2.7657949999999998    1.2216410000000000
C      -2.2208860000000001    1.8913169999999999    1.7466729999999999
H      -3.1200510000000001    1.2454300000000000    2.0271110000000001
H      -1.8151900000000001    2.1851850000000002    2.7302330000000001
Ni     -1.6813810000000000   -1.9797190000000000   -0.1610320000000000
Ni      1.3234900000000001   -0.3587390000000000   -2.0062519999999999
Ni     -0.3161040000000000   -0.9728550000000000    1.5110730000000001
Ni      3.0809280000000001    0.8610840000000000   -1.0970430000000000
Ni      2.9897330000000002   -1.4393110000000000   -0.3876420000000000
Ni      1.9184530000000000   -2.5332770000000000   -2.2542010000000001
Ni      1.9096890000000000   -1.7538090000000000    1.6767660000000000
Ni     -0.4813550000000000    1.4956940000000001    0.8620420000000000
Ni      1.4725619999999999    0.1678240000000000    0.4978620000000000
Ni      0.7073730000000000   -2.1103120000000000   -0.2555420000000000
Ni      0.8965410000000000    1.7740540000000000   -1.0490980000000001
Ni     -0.4242150000000000   -1.9423079999999999   -2.2225700000000002
Ni     -0.6650199999999999   -0.0260640000000000   -0.8482280000000000
Ni      3.5701100000000001   -0.8884050000000000   -2.5598339999999999
Ni     -2.3007230000000001    0.0518100000000000    0.8855610000000000
