   19
 
C       2.1256610000000000   -2.3205380000000000    1.3634379999999999
H       1.5642110000000000   -3.2176700000000000    1.6657930000000001
H       2.8715609999999998   -2.5871810000000002    0.5993579999999999
H       2.6267179999999999   -1.8739980000000001    2.2355250000000000
Ni     -3.0972279999999999   -0.4520680000000000    0.6145760000000000
Ni     -0.9034500000000000    1.4818640000000001   -1.9134830000000000
Ni     -0.9740970000000000   -0.0537280000000000    1.6990790000000000
Ni      1.2633610000000000    2.2289119999999998   -1.6908890000000001
Ni      1.0132580000000000   -0.1722070000000000   -1.5621790000000000
Ni     -0.9352990000000000   -0.5834660000000000   -2.9292150000000001
Ni      0.8980330000000000   -1.0451770000000000    0.6333070000000000
Ni     -0.8979180000000000    2.3601760000000001    1.8516840000000001
Ni      0.4093320000000000    1.2148699999999999    0.2586740000000000
Ni     -1.0766039999999999   -0.6867920000000000   -0.5778530000000000
Ni     -0.4962390000000000    3.2270460000000001   -0.3688490000000000
Ni     -2.8729779999999998    0.1897110000000000   -1.7045110000000001
Ni     -2.1118109999999999    1.5560300000000000    0.0689920000000000
Ni      0.7086780000000000    0.9523730000000000   -3.5718800000000002
Ni     -2.8643570000000000    1.1714910000000001    2.2833690000000000
