   19
 
H       1.8835290000000000   -1.8809780000000000    1.9484619999999999
C       0.9374090000000000   -1.3729160000000000    2.3368060000000002
H       1.2939959999999999   -0.7670709999999999    3.1835339999999999
H       0.3187590000000000   -2.2104189999999999    2.6930830000000001
Ni     -2.4876030000000000   -0.7513890000000000    0.3296540000000000
Ni     -0.5038010000000001    1.1889890000000001   -2.3292470000000001
Ni     -0.3826310000000000   -0.1723670000000000    1.4530900000000000
Ni      1.6193420000000001    2.0695630000000000   -2.1983619999999999
Ni      1.6003590000000001   -0.3408680000000000   -1.9292680000000000
Ni     -0.3534150000000000   -0.9161440000000000   -3.2229719999999999
Ni      1.4782780000000000   -1.0608979999999999    0.3426460000000000
Ni     -0.4325310000000000    2.2587640000000002    1.4059159999999999
Ni      0.8919200000000000    1.1080859999999999   -0.1822770000000000
Ni     -0.4632130000000000   -0.8900770000000000   -0.8811080000000000
Ni     -0.1265690000000000    3.0415559999999999   -0.8752670000000000
Ni     -2.3621159999999999   -0.2341910000000000   -1.9807450000000000
Ni     -1.6176379999999999    1.2923620000000000   -0.2898190000000000
Ni      1.1122630000000000    0.6975140000000000   -4.0042710000000001
Ni     -2.3319869999999998    0.9838780000000000    1.9167129999999999
