   19
 
C       1.4277910000000000    0.4900340000000000   -3.7613310000000002
H       0.7395540000000000    1.1285019999999999   -4.3373770000000000
H       2.4242620000000001    0.9541210000000000   -3.7154900000000000
H       1.5019180000000001   -0.5029770000000000   -4.2277490000000002
Ni     -2.6803610000000000   -1.5009390000000000    2.4875490000000000
Ni     -0.8053630000000001    0.6721480000000000   -0.0964580000000000
Ni     -0.5321180000000000   -1.0420110000000000    3.4314269999999998
Ni      1.3196170000000000    1.5053300000000001   -0.0393040000000000
Ni      1.2319450000000001   -0.8807020000000000   -0.0305250000000000
Ni     -0.7854310000000000   -1.3012509999999999   -1.2429190000000001
Ni      1.2699250000000000   -1.8488410000000000    2.1604329999999998
Ni     -0.5559890000000000    1.3331350000000000    3.6991299999999998
Ni      0.6941870000000000    0.3603310000000000    1.9333590000000000
Ni     -0.7490500000000000   -1.5648580000000001    1.1080060000000000
Ni     -0.3201240000000000    2.3541889999999999    1.5047320000000000
Ni     -2.6661839999999999   -0.7792050000000000    0.1649850000000000
Ni     -1.8649320000000000    0.5783280000000000    1.9722910000000000
Ni      0.7413880000000000    0.3157870000000000   -1.9840279999999999
Ni     -2.4236570000000000    0.0310710000000000    4.2380639999999996
