   19
 
H       2.0331619999999999    2.8782619999999999   -0.6659720000000000
C       0.9569730000000000    2.6986420000000000   -0.8427630000000000
H       0.4591310000000000    3.2237119999999999    0.0369870000000000
H       0.6262010000000000    3.2312360000000000   -1.7469580000000000
Ni     -2.3720699999999999   -2.4038460000000001    1.6651350000000000
Ni     -0.8134470000000000   -0.3415690000000000   -1.2108170000000000
Ni     -0.2533830000000000   -1.6523310000000000    2.4861670000000000
Ni      1.1681820000000001    0.7863740000000000   -1.3354310000000000
Ni      1.4112160000000000   -1.6038820000000000   -1.0342009999999999
Ni     -0.6100850000000000   -2.4104120000000000   -2.1231640000000001
Ni      1.6165210000000001   -2.3818730000000001    1.2131300000000000
Ni     -0.5682950000000000    0.7706229999999999    2.4850080000000001
Ni      0.7420180000000000   -0.3075970000000000    0.8139680000000000
Ni     -0.4548210000000000   -2.4095000000000000    0.2395170000000000
Ni     -0.3882360000000000    1.5880380000000001    0.2486020000000000
Ni     -2.4717190000000002   -1.9754030000000000   -0.6821220000000000
Ni     -1.7888690000000000   -0.2944670000000000    0.8762270000000000
Ni      0.7054730000000000   -0.7267350000000000   -3.0437259999999999
Ni     -2.2139920000000002   -0.6868360000000000    3.2212070000000002
