   19
 
H       1.6890449999999999    0.0894760000000000    1.9824850000000001
C       0.8508380000000000    0.7044670000000000    2.4055380000000000
H       0.5939930000000000    0.2210500000000000    3.3667899999999999
H       1.2546619999999999    1.7123940000000000    2.5815000000000001
Ni     -3.0464959999999999   -1.1285099999999999   -0.7859820000000000
Ni      0.0095480000000000    0.6793250000000000   -2.1227079999999998
Ni     -1.3564860000000001   -1.4174940000000000    0.9139010000000000
Ni      2.1004019999999999    0.9574940000000000   -1.2484120000000001
Ni      1.5349640000000000   -1.3238479999999999   -1.6332279999999999
Ni      0.0272940000000000   -1.1437690000000000   -3.5238540000000000
Ni      0.5970580000000000   -2.5255489999999998    0.1620950000000000
Ni     -0.9591980000000000    0.7773380000000000    1.7022180000000000
Ni      0.6740600000000000   -0.1987650000000000    0.3102030000000000
Ni     -0.7960050000000000   -1.5265070000000001   -1.3565910000000001
Ni      0.2397670000000000    2.0103840000000002   -0.1946220000000000
Ni     -2.0738240000000001   -0.2276070000000000   -2.7419790000000002
Ni     -1.6497139999999999    0.6803310000000000   -0.5116130000000000
Ni      1.9858650000000000    0.1121910000000000   -3.4008940000000001
Ni     -3.1297210000000000    0.0523280000000000    1.2311000000000001
