   19
 
H      -0.8619599999999999    3.4712310000000000   -1.4434560000000001
C      -0.7713620000000000    3.2205740000000000   -0.3743990000000000
H       0.0403380000000000    3.8058559999999999    0.0772230000000000
H      -1.7206910000000000    3.4395739999999999    0.1403960000000000
Ni     -1.1344150000000000   -2.8764280000000002    1.7582860000000000
Ni     -0.1618100000000000   -0.8186670000000000   -1.3773759999999999
Ni      0.6064020000000000   -1.3448050000000000    2.4524940000000002
Ni      1.4647230000000000    0.7785660000000000   -1.6217999999999999
Ni      2.3240289999999999   -1.3542120000000000   -1.0081089999999999
Ni      0.7149790000000000   -2.8869609999999999   -1.9674410000000000
Ni      2.6455320000000002   -1.6660340000000000    1.3081330000000000
Ni     -0.3974870000000000    0.7896960000000000    2.1292469999999999
Ni      1.2229060000000000    0.0105890000000000    0.5983309999999999
Ni      0.7210029999999999   -2.4720970000000002    0.3562370000000000
Ni     -0.4698410000000000    1.3304210000000001   -0.2447680000000000
Ni     -1.2921080000000000   -2.7807800000000000   -0.6425130000000000
Ni     -1.1890480000000001   -0.8131010000000000    0.6926770000000000
Ni      1.4720240000000000   -1.0061720000000001   -3.1175830000000002
Ni     -1.5885819999999999   -0.9876810000000000    3.0466609999999998
