   19
 
H      -2.4571139999999998    1.4486420000000000    3.5234660000000000
C      -2.9085850000000000    0.9302340000000000    2.6647010000000000
H      -3.6460789999999998    1.5840510000000001    2.1730440000000000
H      -3.3920949999999999    0.0022740000000000    3.0030299999999999
Ni     -1.4715890000000000   -1.3274040000000000   -0.0589920000000000
Ni      1.0904400000000001    0.1964290000000000   -2.5373079999999999
Ni      0.4352100000000000   -0.7445850000000001    1.2586690000000000
Ni      3.2003400000000002    0.9902240000000000   -2.1118380000000001
Ni      2.9335979999999999   -1.3423290000000001   -1.6633370000000001
Ni      1.2190170000000000   -1.9953879999999999   -3.1968030000000001
Ni      2.4577320000000000   -1.8413919999999999    0.5812619999999999
Ni      0.4934900000000000    1.6293240000000000    1.0169570000000001
Ni      2.0511620000000002    0.2914340000000000   -0.1571230000000000
Ni      0.7038590000000000   -1.7365360000000001   -0.8939500000000000
Ni      1.2867690000000001    2.1722139999999999   -1.1896260000000001
Ni     -0.9032800000000000   -1.1274230000000001   -2.3878370000000002
Ni     -0.3990710000000000    0.5517230000000000   -0.7871520000000000
Ni      2.9482599999999999   -0.5597000000000000   -3.8473449999999998
Ni     -1.5402250000000000    0.5122420000000000    1.3947499999999999
