   16
 
H      -2.1781009999999998   -0.6544330000000000   -0.5119980000000000
Fe      2.4953490000000000   -1.2740309999999999    1.5339380000000000
Fe      0.4660530000000000    0.1826610000000000    0.9490600000000000
Fe      0.7218550000000000   -2.2799350000000000    0.1386660000000000
Fe     -0.6598700000000000    2.0360890000000000    2.3029560000000000
Fe     -0.7063710000000000    2.1479040000000000   -0.2052920000000000
Fe      1.4271180000000001    1.6116500000000000   -0.9881040000000000
Fe     -0.4680160000000000   -0.2166970000000000   -1.1435230000000001
Fe     -1.4188470000000000   -1.5788080000000000    0.8040560000000000
Fe     -2.1325750000000001    0.6066200000000000    0.8085070000000000
Fe      1.9872960000000000   -0.6528050000000000   -0.9290830000000000
Fe     -1.1363479999999999   -0.1709530000000000    2.9170919999999998
Fe      2.9176389999999999    0.9089460000000000    0.8461010000000000
Fe      0.4989560000000000   -1.8089240000000000    2.5536850000000002
Fe      1.3932150000000001    0.5987930000000000    3.0315430000000001
Fe      1.3575710000000001    2.5631430000000002    1.3094749999999999
