   16
 
H       0.2061600000000000    0.1655790000000000    2.3176150000000000
Fe      1.5762140000000000   -1.7981920000000000   -0.0780310000000000
Fe     -0.6727800000000000   -0.5872010000000000   -0.5921880000000000
Fe     -0.5050559999999999   -3.1166290000000001   -0.2531640000000000
Fe     -1.4429850000000000    1.7522759999999999    0.1132120000000000
Fe     -2.2456290000000001    0.7367030000000000   -2.1305339999999999
Fe     -0.4260830000000000   -0.3069080000000000   -3.1232799999999998
Fe     -2.1762310000000000   -1.8578859999999999   -1.8149329999999999
Fe     -2.2658339999999999   -2.0104000000000002    0.8262540000000000
Fe     -3.1422430000000001   -0.0814630000000000   -0.1653710000000000
Fe      0.4003390000000000   -2.2760210000000001   -2.1985749999999999
Fe     -1.5441160000000000    0.1333860000000000    1.7892539999999999
Fe      1.6097790000000001   -0.0626970000000000   -1.6178360000000001
Fe      0.0751100000000000   -1.4980359999999999    1.7046539999999999
Fe      0.8263180000000000    0.7022900000000000    0.6330500000000000
Fe      0.0279770000000000    1.6509309999999999   -1.6963580000000000
