   16
 
H       1.3490709999999999   -2.2404540000000002    1.4329580000000000
Fe      1.1891389999999999   -0.5432840000000000    1.7445660000000001
Fe     -0.8229020000000000    0.4673900000000000    0.4946920000000000
Fe     -0.0508830000000000   -1.9889360000000000    0.4441990000000000
Fe     -2.3629530000000001    2.3581880000000002    1.1629769999999999
Fe     -1.9197130000000000    1.8614539999999999   -1.3068150000000001
Fe      0.3653780000000000    1.5799030000000001   -1.5386480000000000
Fe     -1.2609969999999999   -0.5898310000000000   -1.4939800000000001
Fe     -2.3728189999999998   -1.5718610000000000    0.5777450000000000
Fe     -3.3410869999999999    0.4079730000000000   -0.1559450000000000
Fe      1.1775580000000001   -0.4487170000000000   -0.8057270000000000
Fe     -2.7924730000000002    0.3306340000000000    2.1923800000000000
Fe      1.4780679999999999    1.5721780000000001    0.7319080000000000
Fe     -0.9361840000000000   -0.9708430000000000    2.6063339999999999
Fe     -0.3661800000000000    1.5006480000000000    2.4918890000000000
Fe     -0.2947830000000000    3.0065119999999999    0.2929290000000000
