   16
 
H      -0.3284500000000000    1.1995650000000000   -1.9782530000000000
Fe      2.5269080000000002   -1.1849799999999999    1.5256890000000001
Fe      0.5170510000000000    0.2823490000000000    0.8939650000000000
Fe      0.5994870000000000   -2.2565979999999999    0.3758700000000000
Fe     -0.4158500000000000    2.3403190000000000    2.0949220000000000
Fe     -0.6431580000000000    2.1240820000000000   -0.4919190000000000
Fe      1.3706790000000000    1.4034930000000001   -1.3343380000000000
Fe     -0.6275260000000000   -0.3811720000000000   -1.0200389999999999
Fe     -1.4187209999999999   -1.3696140000000001    1.1397450000000000
Fe     -2.0215950000000000    0.8625560000000000    0.9350690000000000
Fe      1.8845470000000000   -0.8400390000000000   -0.9599250000000000
Fe     -0.8775190000000000    0.2933780000000000    3.0484979999999999
Fe      2.9832570000000000    0.8545000000000000    0.5428539999999999
Fe      0.5654290000000000   -1.5041400000000000    2.7245200000000001
Fe      1.6690970000000001    0.9378090000000000    2.7951340000000000
Fe      1.5010380000000001    2.6484660000000000    0.7843790000000000
