   16
 
H       0.5809240000000000   -2.1150169999999999   -2.0931500000000001
Fe      1.3952169999999999   -0.4325790000000000    0.3606900000000000
Fe     -0.9550320000000000    0.4525710000000000   -0.0982640000000000
Fe     -0.2975940000000000   -2.0164240000000002   -0.6073980000000000
Fe     -2.2685520000000001    2.2728229999999998    1.1481680000000001
Fe     -2.6366079999999998    1.9361029999999999   -1.2945070000000001
Fe     -0.5836450000000000    1.7009430000000001   -2.3695160000000000
Fe     -2.1213959999999998   -0.4682670000000000   -1.8480170000000000
Fe     -2.3829680000000000   -1.6023470000000000    0.4011070000000000
Fe     -3.5369410000000001    0.4119090000000000    0.2316330000000000
Ga      0.4200080000000000   -0.4013330000000000   -2.0247519999999999
Fe     -2.0157660000000002    0.2027850000000000    2.2028550000000000
Fe      1.2847480000000000    1.5919449999999999   -0.7982070000000000
Fe     -0.2889130000000000   -1.2774410000000000    1.7282420000000001
Fe      0.1918930000000000    1.3729899999999999    1.6549380000000000
Fe     -0.5057530000000000    2.9512339999999999   -0.2225800000000000
