   16
 
H      -0.5938450000000000    2.8559169999999998   -0.5853180000000000
Fe      2.9290949999999998   -1.5307340000000000    1.2543010000000001
Fe      1.0192220000000001   -0.2631620000000000    0.1895280000000000
Fe      1.0439989999999999   -2.7889080000000002    0.0650310000000000
Fe     -0.0015950000000000    2.0183140000000002    0.8107510000000000
Fe     -0.0047770000000000    1.4602720000000000   -1.4272339999999999
Fe      1.9812940000000001    0.3713990000000000   -2.1001850000000002
Fe      0.0301520000000000   -1.2076720000000001   -1.6528369999999999
Fe     -0.9479850000000000   -1.8611400000000000    0.7908880000000000
Fe     -1.4760780000000000    0.1751800000000000   -0.1509140000000000
Fe      2.6223740000000002   -1.7010019999999999   -1.2700670000000001
Fe     -0.4914780000000000    0.1801460000000000    2.2115000000000000
Fe      3.5596950000000001    0.2110500000000000   -0.1336900000000000
Fe      0.8773339999999999   -1.6902690000000000    2.3602200000000000
Fe      1.9942080000000000    0.7078330000000000    2.0255060000000000
Fe      2.1263600000000000    2.0165560000000000   -0.1448440000000000
