   16
 
H      -0.5284770000000000   -1.4520839999999999   -1.7501540000000000
Fe      2.2997410000000000   -2.0987179999999999    0.4090190000000000
Fe      0.7840040000000000   -0.0564450000000000    0.7286629999999999
Fe     -0.0599970000000000   -2.3624520000000002   -0.2336340000000000
Fe      0.8081210000000000    1.8386009999999999    2.4481549999999999
Fe     -0.0595880000000000    2.2729830000000000    0.0980360000000000
Fe      1.4164890000000001    1.2990600000000001   -1.4045820000000000
Fe     -0.9449670000000000    0.1176060000000000   -0.8174900000000000
Fe     -1.4183930000000000   -1.2396739999999999    1.2928020000000000
Fe     -1.3781690000000000    1.0735619999999999    1.6038900000000000
Fe      1.1938519999999999   -1.0296149999999999   -1.6261680000000001
Fe      0.0413150000000000   -0.2265580000000000    3.1800950000000001
Fe      3.1517100000000000   -0.0146270000000000   -0.2396670000000000
Fe      0.7496040000000000   -2.1740170000000001    2.1601080000000001
Fe      2.4962529999999998   -0.2370760000000000    2.2792089999999998
Fe      2.4168919999999998    1.9231279999999999    0.7689870000000000
