   16
 
H      -2.1716709999999999    0.5678990000000000   -0.6530780000000000
Fe      2.9370959999999999   -0.6312720000000001    0.9877050000000001
Fe      0.6850880000000000    0.5299180000000000    0.6291520000000000
Fe      0.9405110000000000   -2.0485039999999999    0.6929550000000000
Fe     -0.2682340000000000    2.7318470000000001    1.5312060000000001
Ga     -0.9982150000000000    1.8989799999999999   -0.7693870000000000
Fe      0.9274800000000000    1.1518470000000001   -1.8888940000000001
Fe     -0.7515730000000000   -0.6487950000000000   -0.7701920000000000
Fe     -0.9323180000000000   -1.1215379999999999    1.7337250000000000
Fe     -1.8771830000000000    0.9185920000000000    1.1159440000000000
Fe      1.6965840000000001   -0.9312030000000000   -1.2091460000000001
Fe     -0.1836250000000000    0.9146710000000000    3.0025420000000000
Fe      2.9196089999999999    1.2150550000000000   -0.4285380000000000
Fe      1.4228559999999999   -0.7253830000000000    2.7437230000000001
Fe      2.1120190000000001    1.6936130000000000    2.0359840000000000
Fe      1.3401390000000000    2.8722560000000001   -0.1651710000000000
